PDE 2024 12 05 18 44 16.461 40.370 -125.025 10.0  0.0 7.0 FerndaleCA
event name: us7000nw7b
time shift:       0.0000 
half duration:    1.0000 
latitude:        40.3700 
longitude:     -125.0250 
depth:           10.0000 
Mrr:       -2.365638e+23 
Mtt:        2.253281e+23 
Mpp:        1.123572e+22 
Mrt:        1.059495e+24 
Mrp:        1.558399e+23 
Mtp:        5.445466e+22 
PDE 2024 12 05 18 44 16.461 40.370 -125.025 10.0  0.0 7.0 FerndaleCA
event name: us7000nw7b
time shift:       0.9600 
half duration:    1.0000 
latitude:        40.3677 
longitude:     -124.9968 
depth:           10.0000 
Mrr:       -5.978471e+23 
Mtt:        5.633767e+23 
Mpp:        3.447045e+22 
Mrt:        2.648667e+24 
Mrp:        4.803523e+23 
Mtp:        1.456964e+23 
PDE 2024 12 05 18 44 16.461 40.370 -125.025 10.0  0.0 7.0 FerndaleCA
event name: us7000nw7b
time shift:       0.9600 
half duration:    1.0000 
latitude:        40.3708 
longitude:     -125.0249 
depth:            7.6015 
Mrr:       -2.369758e+23 
Mtt:        2.242628e+23 
Mpp:        1.271297e+22 
Mrt:        1.054405e+24 
Mrp:        1.768682e+23 
Mtp:        5.648764e+22 
PDE 2024 12 05 18 44 16.461 40.370 -125.025 10.0  0.0 7.0 FerndaleCA
event name: us7000nw7b
time shift:       1.1576 
half duration:    1.0000 
latitude:        40.3685 
longitude:     -124.9967 
depth:            7.6015 
Mrr:       -6.005858e+23 
Mtt:        5.659086e+23 
Mpp:        3.467724e+22 
Mrt:        2.660568e+24 
Mrp:        4.832489e+23 
Mtp:        1.464288e+23 
PDE 2024 12 05 18 44 16.461 40.370 -125.025 10.0  0.0 7.0 FerndaleCA
event name: us7000nw7b
time shift:       1.3600 
half duration:    3.0000 
latitude:        40.3723 
longitude:     -125.0532 
depth:           10.0000 
Mrr:       -5.618409e+22 
Mtt:        6.622123e+22 
Mpp:       -1.003714e+22 
Mrt:        3.120739e+23 
Mrp:       -1.439122e+23 
Mtp:       -3.960545e+21 
PDE 2024 12 05 18 44 16.461 40.370 -125.025 10.0  0.0 7.0 FerndaleCA
event name: us7000nw7b
time shift:       1.3600 
half duration:    3.0000 
latitude:        40.3693 
longitude:     -125.0251 
depth:           12.3985 
Mrr:       -1.257896e+23 
Mtt:        1.274606e+23 
Mpp:       -1.670990e+21 
Mrt:        5.997427e+23 
Mrp:       -2.600281e+22 
Mtp:        1.879007e+22 
PDE 2024 12 05 18 44 16.461 40.370 -125.025 10.0  0.0 7.0 FerndaleCA
event name: us7000nw7b
time shift:       1.7576 
half duration:    1.0000 
latitude:        40.3670 
longitude:     -124.9969 
depth:           12.3985 
Mrr:       -3.952385e+23 
Mtt:        3.971225e+23 
Mpp:       -1.884041e+21 
Mrt:        1.868414e+24 
Mrp:       -3.376719e+22 
Mtp:        6.351541e+22 
PDE 2024 12 05 18 44 16.461 40.370 -125.025 10.0  0.0 7.0 FerndaleCA
event name: us7000nw7b
time shift:       1.7576 
half duration:    4.0000 
latitude:        40.3730 
longitude:     -125.0531 
depth:            7.6015 
Mrr:       -5.444713e+22 
Mtt:        6.114551e+22 
Mpp:       -6.698376e+21 
Mrt:        2.880190e+23 
Mrp:       -9.633871e+22 
Mtp:        1.885801e+20 
PDE 2024 12 05 18 44 16.461 40.370 -125.025 10.0  0.0 7.0 FerndaleCA
event name: us7000nw7b
time shift:       1.9200 
half duration:    1.0000 
latitude:        40.3655 
longitude:     -124.9686 
depth:           10.0000 
Mrr:       -1.047875e+24 
Mtt:        9.956498e+23 
Mpp:        5.222559e+22 
Mrt:        4.681420e+24 
Mrp:        7.252791e+23 
Mtp:        2.444764e+23 
PDE 2024 12 05 18 44 16.461 40.370 -125.025 10.0  0.0 7.0 FerndaleCA
event name: us7000nw7b
time shift:       1.9466 
half duration:    1.0000 
latitude:        40.3662 
longitude:     -124.9685 
depth:            7.6015 
Mrr:       -1.023123e+24 
Mtt:        9.593474e+23 
Mpp:        6.377598e+22 
Mrt:        4.510023e+24 
Mrp:        8.901876e+23 
Mtp:        2.556994e+23 
PDE 2024 12 05 18 44 16.461 40.370 -125.025 10.0  0.0 7.0 FerndaleCA
event name: us7000nw7b
time shift:       1.9576 
half duration:    4.0000 
latitude:        40.3715 
longitude:     -125.0533 
depth:           12.3985 
Mrr:       -6.869507e+22 
Mtt:        6.839649e+22 
Mpp:        2.985748e+20 
Mrt:        3.217645e+23 
Mrp:        3.045564e+21 
Mtp:        1.187178e+22 
PDE 2024 12 05 18 44 16.461 40.370 -125.025 10.0  0.0 7.0 FerndaleCA
event name: us7000nw7b
time shift:       2.1200 
half duration:    4.0000 
latitude:        40.3715 
longitude:     -125.0248 
depth:            5.2029 
Mrr:       -7.476205e+22 
Mtt:        7.857043e+22 
Mpp:       -3.808379e+21 
Mrt:        3.698450e+23 
Mrp:       -5.554270e+22 
Mtp:        7.424551e+21 
PDE 2024 12 05 18 44 16.461 40.370 -125.025 10.0  0.0 7.0 FerndaleCA
event name: us7000nw7b
time shift:       2.1466 
half duration:    4.0000 
latitude:        40.3692 
longitude:     -124.9966 
depth:            5.2029 
Mrr:       -3.206699e+23 
Mtt:        3.106786e+23 
Mpp:        9.991338e+21 
Mrt:        1.461103e+24 
Mrp:        1.366437e+23 
Mtp:        6.684915e+22 
PDE 2024 12 05 18 44 16.461 40.370 -125.025 10.0  0.0 7.0 FerndaleCA
event name: us7000nw7b
time shift:       2.5466 
half duration:    1.0000 
latitude:        40.3647 
longitude:     -124.9687 
depth:           12.3985 
Mrr:       -7.507077e+23 
Mtt:        7.668529e+23 
Mpp:       -1.614518e+22 
Mrt:        3.608608e+24 
Mrp:       -2.430823e+23 
Mtp:        1.039310e+23 
PDE 2024 12 05 18 44 16.461 40.370 -125.025 10.0  0.0 7.0 FerndaleCA
event name: us7000nw7b
time shift:       2.7153 
half duration:    1.0000 
latitude:        40.3670 
longitude:     -124.9684 
depth:            5.2029 
Mrr:       -6.297110e+23 
Mtt:        6.032160e+23 
Mpp:        2.649504e+22 
Mrt:        2.836516e+24 
Mrp:        3.662257e+23 
Mtp:        1.404148e+23 
PDE 2024 12 05 18 44 16.461 40.370 -125.025 10.0  0.0 7.0 FerndaleCA
event name: us7000nw7b
time shift:       2.7200 
half duration:    1.0000 
latitude:        40.3745 
longitude:     -125.0814 
depth:           10.0000 
Mrr:       -3.151569e+22 
Mtt:        3.653919e+22 
Mpp:       -5.023495e+21 
Mrt:        1.721673e+23 
Mrp:       -7.208632e+22 
Mtp:       -1.414935e+21 
PDE 2024 12 05 18 44 16.461 40.370 -125.025 10.0  0.0 7.0 FerndaleCA
event name: us7000nw7b
time shift:       2.7466 
half duration:    1.0000 
latitude:        40.3738 
longitude:     -125.0530 
depth:            5.2029 
Mrr:       -1.697772e+22 
Mtt:        1.731934e+22 
Mpp:       -3.416172e+20 
Mrt:        8.149903e+22 
Mrp:       -5.162594e+21 
Mtp:        2.381732e+21 
PDE 2024 12 05 18 44 16.461 40.370 -125.025 10.0  0.0 7.0 FerndaleCA
event name: us7000nw7b
time shift:       2.8358 
half duration:    1.0000 
latitude:        40.3640 
longitude:     -124.9403 
depth:            7.6015 
Mrr:       -1.425234e+24 
Mtt:        1.378943e+24 
Mpp:        4.629062e+22 
Mrt:        6.484984e+24 
Mrp:        6.341419e+23 
Mtp:        2.996189e+23 
PDE 2024 12 05 18 44 16.461 40.370 -125.025 10.0  0.0 7.0 FerndaleCA
event name: us7000nw7b
time shift:       2.8800 
half duration:    1.0000 
latitude:        40.3632 
longitude:     -124.9404 
depth:           10.0000 
Mrr:       -1.491117e+24 
Mtt:        1.469941e+24 
Mpp:        2.117550e+22 
Mrt:        6.914418e+24 
Mrp:        2.753537e+23 
Mtp:        2.772307e+23 
PDE 2024 12 05 18 44 16.461 40.370 -125.025 10.0  0.0 7.0 FerndaleCA
event name: us7000nw7b
time shift:       2.9200 
half duration:    2.0000 
latitude:        40.3685 
longitude:     -125.0252 
depth:           14.7971 
Mrr:       -8.700358e+22 
Mtt:        9.935750e+22 
Mpp:       -1.235392e+22 
Mrt:        4.680895e+23 
Mrp:       -1.774435e+23 
Mtp:       -1.892888e+21 
PDE 2024 12 05 18 44 16.461 40.370 -125.025 10.0  0.0 7.0 FerndaleCA
event name: us7000nw7b
time shift:       2.9466 
half duration:    3.0000 
latitude:        40.3738 
longitude:     -125.0815 
depth:           12.3985 
Mrr:       -5.312865e+22 
Mtt:        5.458069e+22 
Mpp:       -1.452037e+21 
Mrt:        2.568583e+23 
Mrp:       -2.160931e+22 
Mtp:        6.943939e+21 
PDE 2024 12 05 18 44 16.461 40.370 -125.025 10.0  0.0 7.0 FerndaleCA
event name: us7000nw7b
time shift:       2.9466 
half duration:    1.0000 
latitude:        40.3753 
longitude:     -125.0813 
depth:            7.6015 
Mrr:       -2.114586e+22 
Mtt:        2.287497e+22 
Mpp:       -1.729111e+21 
Mrt:        1.077091e+23 
Mrp:       -2.499325e+22 
Mtp:        1.233147e+21 
PDE 2024 12 05 18 44 16.461 40.370 -125.025 10.0  0.0 7.0 FerndaleCA
event name: us7000nw7b
time shift:       3.1466 
half duration:    2.0000 
latitude:        40.3708 
longitude:     -125.0534 
depth:           14.7971 
Mrr:       -1.931064e+22 
Mtt:        2.243523e+22 
Mpp:       -3.124585e+21 
Mrt:        1.057136e+23 
Mrp:       -4.483215e+22 
Mtp:       -9.288461e+20 
PDE 2024 12 05 18 44 16.461 40.370 -125.025 10.0  0.0 7.0 FerndaleCA
event name: us7000nw7b
time shift:       3.1466 
half duration:    1.0000 
latitude:        40.3662 
longitude:     -124.9970 
depth:           14.7971 
Mrr:       -1.855951e+23 
Mtt:        2.181399e+23 
Mpp:       -3.254472e+22 
Mrt:        1.027978e+24 
Mrp:       -4.666852e+23 
Mtp:       -1.227014e+22 
PDE 2024 12 05 18 44 16.461 40.370 -125.025 10.0  0.0 7.0 FerndaleCA
event name: us7000nw7b
time shift:       3.3582 
half duration:    1.0000 
latitude:        40.3617 
longitude:     -124.9121 
depth:            7.6015 
Mrr:       -1.654837e+24 
Mtt:        1.662220e+24 
Mpp:       -7.382262e+21 
Mrt:        7.820517e+24 
Mrp:       -1.341744e+23 
Mtp:        2.666077e+23 
PDE 2024 12 05 18 44 16.461 40.370 -125.025 10.0  0.0 7.0 FerndaleCA
event name: us7000nw7b
time shift:       3.4358 
half duration:    3.0000 
latitude:        40.3700 
longitude:     -124.9965 
depth:            2.8044 
Mrr:       -1.423851e+23 
Mtt:        1.443714e+23 
Mpp:       -1.986275e+21 
Mrt:        6.793182e+23 
Mrp:       -3.078373e+22 
Mtp:        2.114296e+22 
PDE 2024 12 05 18 44 16.461 40.370 -125.025 10.0  0.0 7.0 FerndaleCA
event name: us7000nw7b
time shift:       3.4358 
half duration:    1.0000 
latitude:        40.3625 
longitude:     -124.9405 
depth:           12.3985 
Mrr:       -1.088932e+24 
Mtt:        1.134209e+24 
Mpp:       -4.527713e+22 
Mrt:        5.338413e+24 
Mrp:       -6.638503e+23 
Mtp:        1.216936e+23 
PDE 2024 12 05 18 44 16.461 40.370 -125.025 10.0  0.0 7.0 FerndaleCA
event name: us7000nw7b
time shift:       3.4400 
half duration:    1.0000 
latitude:        40.3610 
longitude:     -124.9122 
depth:           10.0000 
Mrr:       -1.773894e+24 
Mtt:        1.810277e+24 
Mpp:       -3.638386e+22 
Mrt:        8.518598e+24 
Mrp:       -5.492383e+23 
Mtp:        2.479339e+23 
PDE 2024 12 05 18 44 16.461 40.370 -125.025 10.0  0.0 7.0 FerndaleCA
event name: us7000nw7b
time shift:       3.4613 
half duration:    4.0000 
latitude:        40.3647 
longitude:     -124.9402 
depth:            5.2029 
Mrr:       -8.411843e+23 
Mtt:        8.229139e+23 
Mpp:        1.827039e+22 
Mrt:        3.870546e+24 
Mrp:        2.453965e+23 
Mtp:        1.648036e+23 
PDE 2024 12 05 18 44 16.461 40.370 -125.025 10.0  0.0 7.0 FerndaleCA
event name: us7000nw7b
time shift:       3.4800 
half duration:    3.0000 
latitude:        40.3723 
longitude:     -125.0247 
depth:            2.8044 
Mrr:       -2.792177e+22 
Mtt:        2.674293e+22 
Mpp:        1.178841e+21 
Mrt:        1.257537e+23 
Mrp:        1.629612e+22 
Mtp:        6.231441e+21 
PDE 2024 12 05 18 44 16.461 40.370 -125.025 10.0  0.0 7.0 FerndaleCA
event name: us7000nw7b
time shift:       3.7153 
half duration:    1.0000 
latitude:        40.3640 
longitude:     -124.9688 
depth:           14.7971 
Mrr:       -3.544480e+23 
Mtt:        4.209123e+23 
Mpp:       -6.646430e+22 
Mrt:        1.983730e+24 
Mrp:       -9.526539e+23 
Mtp:       -2.916492e+22 
PDE 2024 12 05 18 44 16.461 40.370 -125.025 10.0  0.0 7.0 FerndaleCA
event name: us7000nw7b
time shift:       3.7153 
half duration:    1.0000 
latitude:        40.3730 
longitude:     -125.0816 
depth:           14.7971 
Mrr:       -1.540777e+22 
Mtt:        1.518452e+22 
Mpp:        2.232467e+20 
Mrt:        7.142582e+22 
Mrp:        2.908457e+21 
Mtp:        2.870538e+21 
PDE 2024 12 05 18 44 16.461 40.370 -125.025 10.0  0.0 7.0 FerndaleCA
event name: us7000nw7b
time shift:       3.7153 
half duration:    1.0000 
latitude:        40.3760 
longitude:     -125.0812 
depth:            5.2029 
Mrr:       -1.018407e+22 
Mtt:        1.038277e+22 
Mpp:       -1.986972e+20 
Mrt:        4.885754e+22 
Mrp:       -3.008184e+21 
Mtp:        1.436953e+21 
PDE 2024 12 05 18 44 16.461 40.370 -125.025 10.0  0.0 7.0 FerndaleCA
event name: us7000nw7b
time shift:       3.8613 
half duration:    3.0000 
latitude:        40.3677 
longitude:     -124.9683 
depth:            2.8044 
Mrr:       -3.027381e+23 
Mtt:        3.067059e+23 
Mpp:       -3.967744e+21 
Mrt:        1.443146e+24 
Mrp:       -6.181449e+22 
Mtp:        4.529367e+22 
PDE 2024 12 05 18 44 16.461 40.370 -125.025 10.0  0.0 7.0 FerndaleCA
event name: us7000nw7b
time shift:       3.9582 
half duration:    1.0000 
latitude:        40.3602 
longitude:     -124.9123 
depth:           12.3985 
Mrr:       -1.391934e+24 
Mtt:        1.459310e+24 
Mpp:       -6.737667e+22 
Mrt:        6.869056e+24 
Mrp:       -9.838605e+23 
Mtp:        1.429231e+23 
PDE 2024 12 05 18 44 16.461 40.370 -125.025 10.0  0.0 7.0 FerndaleCA
event name: us7000nw7b
time shift:       4.0358 
half duration:    4.0000 
latitude:        40.3745 
longitude:     -125.0529 
depth:            2.8044 
Mrr:       -2.533950e+22 
Mtt:        2.610635e+22 
Mpp:       -7.668514e+20 
Mrt:        1.228610e+23 
Mrp:       -1.136460e+22 
Mtp:        3.213083e+21 
PDE 2024 12 05 18 44 16.461 40.370 -125.025 10.0  0.0 7.0 FerndaleCA
event name: us7000nw7b
time shift:       4.0358 
half duration:    2.0000 
latitude:        40.3760 
longitude:     -125.1097 
depth:           12.3985 
Mrr:       -4.908076e+22 
Mtt:        4.640515e+22 
Mpp:        2.675607e+21 
Mrt:        2.181785e+23 
Mrp:        3.723813e+22 
Mtp:        1.175595e+22 
PDE 2024 12 05 18 44 16.461 40.370 -125.025 10.0  0.0 7.0 FerndaleCA
event name: us7000nw7b
time shift:       4.0800 
half duration:    4.0000 
latitude:        40.3768 
longitude:     -125.1096 
depth:           10.0000 
Mrr:       -4.332174e+22 
Mtt:        4.165020e+22 
Mpp:        1.671545e+21 
Mrt:        1.958609e+23 
Mrp:        2.304170e+22 
Mtp:        9.458950e+21 
PDE 2024 12 05 18 44 16.461 40.370 -125.025 10.0  0.0 7.0 FerndaleCA
event name: us7000nw7b
time shift:       4.0933 
half duration:    1.0000 
latitude:        40.3625 
longitude:     -124.9120 
depth:            5.2029 
Mrr:       -1.022936e+24 
Mtt:        1.045660e+24 
Mpp:       -2.272332e+22 
Mrt:        4.920636e+24 
Mrp:       -3.415323e+23 
Mtp:        1.406576e+23 
PDE 2024 12 05 18 44 16.461 40.370 -125.025 10.0  0.0 7.0 FerndaleCA
event name: us7000nw7b
time shift:       4.2000 
half duration:    1.0000 
latitude:        40.3587 
longitude:     -124.8840 
depth:           10.0000 
Mrr:       -1.763709e+24 
Mtt:        1.846925e+24 
Mpp:       -8.321580e+22 
Mrt:        8.693470e+24 
Mrp:       -1.215932e+24 
Mtp:        1.839643e+23 
PDE 2024 12 05 18 44 16.461 40.370 -125.025 10.0  0.0 7.0 FerndaleCA
event name: us7000nw7b
time shift:       4.2358 
half duration:    4.0000 
latitude:        40.3775 
longitude:     -125.1095 
depth:            7.6015 
Mrr:       -6.880753e+22 
Mtt:        7.337674e+22 
Mpp:       -4.569203e+21 
Mrt:        3.454505e+23 
Mrp:       -6.627207e+22 
Mtp:        5.418309e+21 
PDE 2024 12 05 18 44 16.461 40.370 -125.025 10.0  0.0 7.0 FerndaleCA
event name: us7000nw7b
time shift:       4.2951 
half duration:    1.0000 
latitude:        40.3595 
longitude:     -124.8839 
depth:            7.6015 
Mrr:       -1.676915e+24 
Mtt:        1.741748e+24 
Mpp:       -6.483316e+22 
Mrt:        8.197686e+24 
Mrp:       -9.526450e+23 
Mtp:        1.939080e+23 
PDE 2024 12 05 18 44 16.461 40.370 -125.025 10.0  0.0 7.0 FerndaleCA
event name: us7000nw7b
time shift:       4.4358 
half duration:    3.0000 
latitude:        40.3700 
longitude:     -125.0535 
depth:           17.1956 
Mrr:       -1.748366e+22 
Mtt:        1.858077e+22 
Mpp:       -1.097113e+21 
Mrt:        8.747331e+22 
Mrp:       -1.592950e+22 
Mtp:        1.461727e+21 
PDE 2024 12 05 18 44 16.461 40.370 -125.025 10.0  0.0 7.0 FerndaleCA
event name: us7000nw7b
time shift:       4.4613 
half duration:    2.0000 
latitude:        40.3753 
longitude:     -125.1098 
depth:           14.7971 
Mrr:       -2.028752e+22 
Mtt:        2.429566e+22 
Mpp:       -4.008138e+21 
Mrt:        1.145127e+23 
Mrp:       -5.743082e+22 
Mtp:       -1.940452e+21 
PDE 2024 12 05 18 44 16.461 40.370 -125.025 10.0  0.0 7.0 FerndaleCA
event name: us7000nw7b
time shift:       4.4613 
half duration:    1.0000 
latitude:        40.3617 
longitude:     -124.9406 
depth:           14.7971 
Mrr:       -6.065217e+23 
Mtt:        6.798768e+23 
Mpp:       -7.335510e+22 
Mrt:        3.202424e+24 
Mrp:       -1.055202e+24 
Mtp:        3.779249e+21 
PDE 2024 12 05 18 44 16.461 40.370 -125.025 10.0  0.0 7.0 FerndaleCA
event name: us7000nw7b
time shift:       4.4729 
half duration:    3.0000 
latitude:        40.3655 
longitude:     -124.9401 
depth:            2.8044 
Mrr:       -4.348474e+23 
Mtt:        4.544114e+23 
Mpp:       -1.956391e+22 
Mrt:        2.138865e+24 
Mrp:       -2.862185e+23 
Mtp:        4.662429e+22 
PDE 2024 12 05 18 44 16.461 40.370 -125.025 10.0  0.0 7.0 FerndaleCA
event name: us7000nw7b
time shift:       4.4800 
half duration:    3.0000 
latitude:        40.3678 
longitude:     -125.0253 
depth:           17.1956 
Mrr:       -4.315395e+22 
Mtt:        5.121280e+22 
Mpp:       -8.058844e+21 
Mrt:        2.413608e+23 
Mrp:       -1.155131e+23 
Mtp:       -3.506722e+21 
PDE 2024 12 05 18 44 16.461 40.370 -125.025 10.0  0.0 7.0 FerndaleCA
event name: us7000nw7b
time shift:       4.5582 
half duration:    2.0000 
latitude:        40.3707 
longitude:     -124.9964 
depth:            0.4058 
Mrr:       -5.720117e+20 
Mtt:        5.451228e+20 
Mpp:        2.688891e+19 
Mrt:        2.563188e+21 
Mrp:        3.728472e+20 
Mtp:        1.313004e+20 
PDE 2024 12 05 18 44 16.461 40.370 -125.025 10.0  0.0 7.0 FerndaleCA
event name: us7000nw7b
time shift:       4.6400 
half duration:    1.0000 
latitude:        40.3730 
longitude:     -125.0246 
depth:            0.4058 
Mrr:       -2.738109e+19 
Mtt:        3.019003e+19 
Mpp:       -2.808940e+18 
Mrt:        1.421805e+20 
Mrp:       -4.047915e+19 
Mtp:        8.389231e+17 
PDE 2024 12 05 18 44 16.461 40.370 -125.025 10.0  0.0 7.0 FerndaleCA
event name: us7000nw7b
time shift:       4.6613 
half duration:    2.0000 
latitude:        40.3723 
longitude:     -125.0817 
depth:           17.1956 
Mrr:       -7.412672e+21 
Mtt:        7.029598e+21 
Mpp:        3.830737e+20 
Mrt:        3.305153e+22 
Mrp:        5.324710e+21 
Mtp:        1.747549e+21 
PDE 2024 12 05 18 44 16.461 40.370 -125.025 10.0  0.0 7.0 FerndaleCA
event name: us7000nw7b
time shift:       4.6613 
half duration:    3.0000 
latitude:        40.3768 
longitude:     -125.0811 
depth:            2.8044 
Mrr:       -4.432001e+22 
Mtt:        4.516807e+22 
Mpp:       -8.480586e+20 
Mrt:        2.125436e+23 
Mrp:       -1.285420e+22 
Mtp:        6.275604e+21 
PDE 2024 12 05 18 44 16.461 40.370 -125.025 10.0  0.0 7.0 FerndaleCA
event name: us7000nw7b
time shift:       4.6951 
half duration:    1.0000 
latitude:        40.3580 
longitude:     -124.8841 
depth:           12.3985 
Mrr:       -1.524736e+24 
Mtt:        1.589189e+24 
Mpp:       -6.445278e+22 
Mrt:        7.479933e+24 
Mrp:       -9.445567e+23 
Mtp:        1.689940e+23 
PDE 2024 12 05 18 44 16.461 40.370 -125.025 10.0  0.0 7.0 FerndaleCA
event name: us7000nw7b
time shift:       4.8358 
half duration:    2.0000 
latitude:        40.3655 
longitude:     -124.9971 
depth:           17.1956 
Mrr:       -7.708754e+22 
Mtt:        8.559804e+22 
Mpp:       -8.510497e+21 
Mrt:        4.031543e+23 
Mrp:       -1.225402e+23 
Mtp:        1.561005e+21 
PDE 2024 12 05 18 44 16.461 40.370 -125.025 10.0  0.0 7.0 FerndaleCA
event name: us7000nw7b
time shift:       4.8613 
half duration:    3.0000 
latitude:        40.3783 
longitude:     -125.1094 
depth:            5.2029 
Mrr:       -5.099814e+22 
Mtt:        5.081080e+22 
Mpp:        1.873467e+20 
Mrt:        2.390362e+23 
Mrp:        1.772406e+21 
Mtp:        8.767804e+21 
PDE 2024 12 05 18 44 16.461 40.370 -125.025 10.0  0.0 7.0 FerndaleCA
event name: us7000nw7b
time shift:       4.8933 
half duration:    2.0000 
latitude:        40.3685 
longitude:     -124.9682 
depth:            0.4058 
Mrr:       -1.411818e+21 
Mtt:        1.422151e+21 
Mpp:       -1.033383e+19 
Mrt:        6.691240e+21 
Mrp:       -1.719371e+20 
Mtp:        2.220894e+20 
PDE 2024 12 05 18 44 16.461 40.370 -125.025 10.0  0.0 7.0 FerndaleCA
event name: us7000nw7b
time shift:       4.9698 
half duration:    1.0000 
latitude:        40.3602 
longitude:     -124.8838 
depth:            5.2029 
Mrr:       -1.038376e+24 
Mtt:        1.102162e+24 
Mpp:       -6.378535e+22 
Mrt:        5.188616e+24 
Mrp:       -9.265139e+23 
Mtp:        8.864013e+22 
PDE 2024 12 05 18 44 16.461 40.370 -125.025 10.0  0.0 7.0 FerndaleCA
event name: us7000nw7b
time shift:       5.0000 
half duration:    4.0000 
latitude:        40.3632 
longitude:     -124.9119 
depth:            2.8044 
Mrr:       -5.882768e+23 
Mtt:        6.182861e+23 
Mpp:       -3.000924e+22 
Mrt:        2.910384e+24 
Mrp:       -4.376504e+23 
Mtp:        5.836483e+22 
PDE 2024 12 05 18 44 16.461 40.370 -125.025 10.0  0.0 7.0 FerndaleCA
event name: us7000nw7b
time shift:       5.0729 
half duration:    1.0000 
latitude:        40.3745 
longitude:     -125.1099 
depth:           17.1956 
Mrr:       -3.524682e+21 
Mtt:        3.918959e+21 
Mpp:       -3.942763e+20 
Mrt:        1.845797e+22 
Mrp:       -5.676253e+21 
Mtp:        6.452673e+19 
PDE 2024 12 05 18 44 16.461 40.370 -125.025 10.0  0.0 7.0 FerndaleCA
event name: us7000nw7b
time shift:       5.0933 
half duration:    4.0000 
latitude:        40.3595 
longitude:     -124.9124 
depth:           14.7971 
Mrr:       -8.651199e+23 
Mtt:        9.169796e+23 
Mpp:       -5.185973e+22 
Mrt:        4.316775e+24 
Mrp:       -7.536551e+23 
Mtp:        7.555588e+22 
PDE 2024 12 05 18 44 16.461 40.370 -125.025 10.0  0.0 7.0 FerndaleCA
event name: us7000nw7b
time shift:       5.1582 
half duration:    1.0000 
latitude:        40.3783 
longitude:     -125.1379 
depth:           12.3985 
Mrr:       -4.090239e+22 
Mtt:        3.849400e+22 
Mpp:        2.408392e+21 
Mrt:        1.809735e+23 
Mrp:        3.357665e+22 
Mtp:        1.003454e+22 
PDE 2024 12 05 18 44 16.461 40.370 -125.025 10.0  0.0 7.0 FerndaleCA
event name: us7000nw7b
time shift:       5.1582 
half duration:    2.0000 
latitude:        40.3753 
longitude:     -125.0528 
depth:            0.4058 
Mrr:       -3.904231e+19 
Mtt:        4.005738e+19 
Mpp:       -1.015072e+18 
Mrt:        1.885085e+20 
Mrp:       -1.513975e+19 
Mtp:        5.171958e+18 
PDE 2024 12 05 18 44 16.461 40.370 -125.025 10.0  0.0 7.0 FerndaleCA
event name: us7000nw7b
time shift:       5.1600 
half duration:    1.0000 
latitude:        40.3565 
longitude:     -124.8558 
depth:           10.0000 
Mrr:       -1.711700e+24 
Mtt:        1.785485e+24 
Mpp:       -7.378528e+22 
Mrt:        8.403924e+24 
Mrp:       -1.080731e+24 
Mtp:        1.878157e+23 
PDE 2024 12 05 18 44 16.461 40.370 -125.025 10.0  0.0 7.0 FerndaleCA
event name: us7000nw7b
time shift:       5.2395 
half duration:    1.0000 
latitude:        40.3572 
longitude:     -124.8557 
depth:            7.6015 
Mrr:       -1.673062e+24 
Mtt:        1.730207e+24 
Mpp:       -5.714526e+22 
Mrt:        8.142989e+24 
Mrp:       -8.431040e+23 
Mtp:        2.034865e+23 
PDE 2024 12 05 18 44 16.461 40.370 -125.025 10.0  0.0 7.0 FerndaleCA
event name: us7000nw7b
time shift:       5.2400 
half duration:    4.0000 
latitude:        40.3790 
longitude:     -125.1378 
depth:           10.0000 
Mrr:       -9.157136e+21 
Mtt:        1.070327e+22 
Mpp:       -1.546131e+21 
Mrt:        5.043617e+22 
Mrp:       -2.217720e+22 
Mtp:       -5.261513e+20 
PDE 2024 12 05 18 44 16.461 40.370 -125.025 10.0  0.0 7.0 FerndaleCA
event name: us7000nw7b
time shift:       5.2613 
half duration:    1.0000 
latitude:        40.3632 
longitude:     -124.9689 
depth:           17.1956 
Mrr:       -1.483424e+23 
Mtt:        1.738764e+23 
Mpp:       -2.553395e+22 
Mrt:        8.193658e+23 
Mrp:       -3.661999e+23 
Mtp:       -9.171203e+21 
PDE 2024 12 05 18 44 16.461 40.370 -125.025 10.0  0.0 7.0 FerndaleCA
event name: us7000nw7b
time shift:       5.2933 
half duration:    2.0000 
latitude:        40.3775 
longitude:     -125.1380 
depth:           14.7971 
Mrr:       -4.374192e+22 
Mtt:        5.265890e+22 
Mpp:       -8.916984e+21 
Mrt:        2.482092e+23 
Mrp:       -1.277431e+23 
Mtp:       -4.549503e+21 
PDE 2024 12 05 18 44 16.461 40.370 -125.025 10.0  0.0 7.0 FerndaleCA
event name: us7000nw7b
time shift:       5.3582 
half duration:    1.0000 
latitude:        40.3798 
longitude:     -125.1377 
depth:            7.6015 
Mrr:       -4.570933e+22 
Mtt:        4.592803e+22 
Mpp:       -2.186981e+20 
Mrt:        2.160859e+23 
Mrp:       -3.916693e+21 
Mtp:        7.344481e+21 
PDE 2024 12 05 18 44 16.461 40.370 -125.025 10.0  0.0 7.0 FerndaleCA
event name: us7000nw7b
time shift:       5.4000 
half duration:    1.0000 
latitude:        40.3662 
longitude:     -124.9400 
depth:            0.4058 
Mrr:       -1.869432e+21 
Mtt:        2.135289e+21 
Mpp:       -2.658575e+20 
Mrt:        1.005972e+22 
Mrp:       -3.818550e+21 
Mtp:       -4.121850e+19 
PDE 2024 12 05 18 44 16.461 40.370 -125.025 10.0  0.0 7.0 FerndaleCA
event name: us7000nw7b
time shift:       5.4395 
half duration:    1.0000 
latitude:        40.3557 
longitude:     -124.8559 
depth:           12.3985 
Mrr:       -1.465769e+24 
Mtt:        1.520672e+24 
Mpp:       -5.490356e+22 
Mrt:        7.157087e+24 
Mrp:       -8.075435e+23 
Mtp:        1.718409e+23 
PDE 2024 12 05 18 44 16.461 40.370 -125.025 10.0  0.0 7.0 FerndaleCA
event name: us7000nw7b
time shift:       5.6729 
half duration:    2.0000 
latitude:        40.3790 
longitude:     -125.1093 
depth:            2.8044 
Mrr:       -9.627540e+22 
Mtt:        1.011708e+23 
Mpp:       -4.895399e+21 
Mrt:        4.762285e+23 
Mrp:       -7.139923e+22 
Mtp:        9.572815e+21 
PDE 2024 12 05 18 44 16.461 40.370 -125.025 10.0  0.0 7.0 FerndaleCA
event name: us7000nw7b
time shift:       5.6933 
half duration:    2.0000 
latitude:        40.3715 
longitude:     -125.0818 
depth:           19.5942 
Mrr:       -7.053445e+21 
Mtt:        7.640226e+21 
Mpp:       -5.867809e+20 
Mrt:        3.597527e+22 
Mrp:       -8.479412e+21 
Mtp:        3.980131e+20 
PDE 2024 12 05 18 44 16.461 40.370 -125.025 10.0  0.0 7.0 FerndaleCA
event name: us7000nw7b
time shift:       5.6933 
half duration:    3.0000 
latitude:        40.3775 
longitude:     -125.0810 
depth:            0.4058 
Mrr:       -1.293222e+20 
Mtt:        1.221091e+20 
Mpp:        7.213113e+18 
Mrt:        5.740992e+20 
Mrp:        1.004420e+20 
Mtp:        3.119257e+19 
PDE 2024 12 05 18 44 16.461 40.370 -125.025 10.0  0.0 7.0 FerndaleCA
event name: us7000nw7b
time shift:       5.7582 
half duration:    3.0000 
latitude:        40.3693 
longitude:     -125.0536 
depth:           19.5942 
Mrr:       -2.270304e+22 
Mtt:        2.376025e+22 
Mpp:       -1.057209e+21 
Mrt:        1.118387e+23 
Mrp:       -1.545292e+22 
Mtp:        2.386627e+21 
PDE 2024 12 05 18 44 16.461 40.370 -125.025 10.0  0.0 7.0 FerndaleCA
event name: us7000nw7b
time shift:       5.7698 
half duration:    4.0000 
latitude:        40.3572 
longitude:     -124.8842 
depth:           14.7971 
Mrr:       -1.039900e+24 
Mtt:        1.053958e+24 
Mpp:       -1.405801e+22 
Mrt:        4.959220e+24 
Mrp:       -2.184388e+23 
Mtp:        1.550127e+23 
PDE 2024 12 05 18 44 16.461 40.370 -125.025 10.0  0.0 7.0 FerndaleCA
event name: us7000nw7b
time shift:       5.7977 
half duration:    1.0000 
latitude:        40.3610 
longitude:     -124.8837 
depth:            2.8044 
Mrr:       -6.108631e+23 
Mtt:        6.581785e+23 
Mpp:       -4.731541e+22 
Mrt:        3.098973e+24 
Mrp:       -6.844814e+23 
Mtp:        3.912713e+22 
PDE 2024 12 05 18 44 16.461 40.370 -125.025 10.0  0.0 7.0 FerndaleCA
event name: us7000nw7b
time shift:       5.8000 
half duration:    2.0000 
latitude:        40.3768 
longitude:     -125.1381 
depth:           17.1956 
Mrr:       -3.759293e+20 
Mtt:        4.210067e+20 
Mpp:       -4.507733e+19 
Mrt:        1.983050e+21 
Mrp:       -6.484872e+20 
Mtp:        2.859692e+18 
PDE 2024 12 05 18 44 16.461 40.370 -125.025 10.0  0.0 7.0 FerndaleCA
event name: us7000nw7b
time shift:       5.8000 
half duration:    1.0000 
latitude:        40.3738 
longitude:     -125.1100 
depth:           19.5942 
Mrr:       -2.705763e+21 
Mtt:        2.789764e+21 
Mpp:       -8.400162e+19 
Mrt:        1.312922e+22 
Mrp:       -1.243661e+21 
Mtp:        3.402797e+20 
PDE 2024 12 05 18 44 16.461 40.370 -125.025 10.0  0.0 7.0 FerndaleCA
event name: us7000nw7b
time shift:       5.8306 
half duration:    1.0000 
latitude:        40.3640 
longitude:     -124.9118 
depth:            0.4058 
Mrr:       -2.594720e+21 
Mtt:        2.899335e+21 
Mpp:       -3.046149e+20 
Mrt:        1.365631e+22 
Mrp:       -4.383176e+21 
Mtp:        2.840113e+19 
PDE 2024 12 05 18 44 16.461 40.370 -125.025 10.0  0.0 7.0 FerndaleCA
event name: us7000nw7b
time shift:       5.8729 
half duration:    1.0000 
latitude:        40.3610 
longitude:     -124.9407 
depth:           17.1956 
Mrr:       -2.819919e+23 
Mtt:        3.060254e+23 
Mpp:       -2.403358e+22 
Mrt:        1.441000e+24 
Mrp:       -3.471815e+23 
Mtp:        1.514845e+22 
PDE 2024 12 05 18 44 16.461 40.370 -125.025 10.0  0.0 7.0 FerndaleCA
event name: us7000nw7b
time shift:       5.8933 