PDE 2025 03 28 06 20 54.002 22.013 95.922 10.0  0.0 7.7 Myanmar
event name: us7000pn9s
time shift:       0.0000 
half duration:    3.0000 
latitude:        21.9830 
longitude:       96.0011 
depth:           10.0000 
Mrr:       -1.455172e+24 
Mtt:        4.178105e+24 
Mpp:       -2.722933e+24 
Mrt:       -2.076239e+25 
Mrp:        3.268084e+24 
Mtp:        9.387658e+24 
PDE 2025 03 28 06 20 54.002 22.013 95.922 10.0  0.0 7.7 Myanmar
event name: us7000pn9s
time shift:       0.9783 
half duration:    4.5000 
latitude:        21.9832 
longitude:       96.0072 
depth:           14.4562 
Mrr:       -2.812710e+23 
Mtt:        4.473560e+23 
Mpp:       -1.660849e+23 
Mrt:       -4.019463e+24 
Mrp:        5.869628e+23 
Mtp:        5.590628e+23 
PDE 2025 03 28 06 20 54.002 22.013 95.922 10.0  0.0 7.7 Myanmar
event name: us7000pn9s
time shift:       1.3783 
half duration:    1.5000 
latitude:        21.9828 
longitude:       95.9951 
depth:            5.5438 
Mrr:       -1.708618e+24 
Mtt:        3.894187e+24 
Mpp:       -2.185569e+24 
Mrt:       -2.439622e+25 
Mrp:        3.711680e+24 
Mtp:        7.497015e+24 
PDE 2025 03 28 06 20 54.002 22.013 95.922 10.0  0.0 7.7 Myanmar
event name: us7000pn9s
time shift:       2.1565 
half duration:    7.5000 
latitude:        21.9834 
longitude:       96.0133 
depth:           18.9124 
Mrr:       -6.016991e+21 
Mtt:        1.072001e+21 
Mpp:        4.944990e+21 
Mrt:       -8.613332e+22 
Mrp:        1.150128e+22 
Mtp:       -1.765737e+22 
PDE 2025 03 28 06 20 54.002 22.013 95.922 10.0  0.0 7.7 Myanmar
event name: us7000pn9s
time shift:       2.3839 
half duration:    6.0000 
latitude:        21.8933 
longitude:       96.0106 
depth:           14.4562 
Mrr:       -1.908556e+24 
Mtt:        3.722731e+24 
Mpp:       -1.814175e+24 
Mrt:       -2.726195e+25 
Mrp:        4.068143e+24 
Mtp:        6.188574e+24 
PDE 2025 03 28 06 20 54.002 22.013 95.922 10.0  0.0 7.7 Myanmar
event name: us7000pn9s
time shift:       2.7739 
half duration:    1.5000 
latitude:        21.8931 
longitude:       96.0045 
depth:           10.0000 
Mrr:       -2.985830e+24 
Mtt:        8.287546e+24 
Mpp:       -5.301716e+24 
Mrt:       -4.260679e+25 
Mrp:        6.670262e+24 
Mtp:        1.826762e+25 
PDE 2025 03 28 06 20 54.002 22.013 95.922 10.0  0.0 7.7 Myanmar
event name: us7000pn9s
time shift:       2.9247 
half duration:    6.0000 
latitude:        21.8935 
longitude:       96.0167 
depth:           18.9124 
Mrr:       -5.556710e+23 
Mtt:        6.705101e+23 
Mpp:       -1.148391e+23 
Mrt:       -7.944461e+24 
Mrp:        1.133107e+24 
Mtp:        3.611666e+23 
PDE 2025 03 28 06 20 54.002 22.013 95.922 10.0  0.0 7.7 Myanmar
event name: us7000pn9s
time shift:       2.9565 
half duration:    3.0000 
latitude:        21.9826 
longitude:       95.9890 
depth:            1.0876 
Mrr:       -1.051988e+24 
Mtt:        5.959142e+23 
Mpp:        4.560737e+23 
Mrt:       -1.505209e+25 
Mrp:        2.061559e+24 
Mtp:       -1.663479e+24 
PDE 2025 03 28 06 20 54.002 22.013 95.922 10.0  0.0 7.7 Myanmar
event name: us7000pn9s
time shift:       2.9739 
half duration:    1.5000 
latitude:        22.0730 
longitude:       95.9977 
depth:           10.0000 
Mrr:       -6.485047e+23 
Mtt:        9.770465e+23 
Mpp:       -3.285418e+23 
Mrt:       -9.268313e+24 
Mrp:        1.346562e+24 
Mtp:        1.099437e+24 
PDE 2025 03 28 06 20 54.002 22.013 95.922 10.0  0.0 7.7 Myanmar
event name: us7000pn9s
time shift:       3.1839 
half duration:    9.0000 
latitude:        21.8929 
longitude:       95.9984 
depth:            5.5438 
Mrr:       -2.550703e+24 
Mtt:        3.295141e+23 
Mpp:        2.221189e+24 
Mrt:       -3.651554e+25 
Mrp:        4.860075e+24 
Mtp:       -7.920646e+24 
PDE 2025 03 28 06 20 54.002 22.013 95.922 10.0  0.0 7.7 Myanmar
event name: us7000pn9s
time shift:       3.1839 
half duration:    9.0000 
latitude:        22.0732 
longitude:       96.0038 
depth:           14.4562 
Mrr:       -1.717758e+23 
Mtt:        1.132430e+23 
Mpp:        5.853283e+22 
Mrt:       -2.457531e+24 
Mrp:        3.386045e+23 
Mtp:       -2.160770e+23 
PDE 2025 03 28 06 20 54.002 22.013 95.922 10.0  0.0 7.7 Myanmar
event name: us7000pn9s
time shift:       3.5839 
half duration:    9.0000 
latitude:        22.0728 
longitude:       95.9917 
depth:            5.5438 
Mrr:       -1.743771e+24 
Mtt:        2.499601e+24 
Mpp:       -7.558301e+23 
Mrt:       -2.492389e+25 
Mrp:        3.604943e+24 
Mtp:        2.511612e+24 
PDE 2025 03 28 06 20 54.002 22.013 95.922 10.0  0.0 7.7 Myanmar
event name: us7000pn9s
time shift:       4.1247 
half duration:    7.5000 
latitude:        22.0734 
longitude:       96.0099 
depth:           18.9124 
Mrr:       -3.104313e+22 
Mtt:        5.590891e+22 
Mpp:       -2.486578e+22 
Mrt:       -4.435033e+23 
Mrp:        6.559296e+22 
Mtp:        8.447957e+22 
PDE 2025 03 28 06 20 54.002 22.013 95.922 10.0  0.0 7.7 Myanmar
event name: us7000pn9s
time shift:       4.1247 
half duration:    9.0000 
latitude:        21.8927 
longitude:       95.9924 
depth:            1.0876 
Mrr:       -1.053385e+24 
Mtt:        4.491747e+23 
Mpp:        6.042105e+23 
Mrt:       -1.507466e+25 
Mrp:        2.045980e+24 
Mtp:       -2.179864e+24 
PDE 2025 03 28 06 20 54.002 22.013 95.922 10.0  0.0 7.7 Myanmar
event name: us7000pn9s
time shift:       4.3247 
half duration:    9.0000 
latitude:        22.0726 
longitude:       95.9856 
depth:            1.0876 
Mrr:       -9.639157e+23 
Mtt:        1.162107e+24 
Mpp:       -1.981916e+23 
Mrt:       -1.378118e+25 
Mrp:        1.965460e+24 
Mtp:        6.229621e+23 
PDE 2025 03 28 06 20 54.002 22.013 95.922 10.0  0.0 7.7 Myanmar
event name: us7000pn9s
time shift:       4.4565 
half duration:    7.5000 
latitude:        21.8033 
longitude:       96.0140 
depth:           14.4562 
Mrr:       -2.933544e+24 
Mtt:        6.169390e+24 
Mpp:       -3.235846e+24 
Mrt:       -4.189513e+25 
Mrp:        6.308481e+24 
Mtp:        1.107132e+25 
PDE 2025 03 28 06 20 54.002 22.013 95.922 10.0  0.0 7.7 Myanmar
event name: us7000pn9s
time shift:       4.7678 
half duration:    4.5000 
latitude:        21.8035 
longitude:       96.0201 
depth:           18.9124 
Mrr:       -5.777420e+23 
Mtt:        6.122412e+23 
Mpp:       -3.449919e+22 
Mrt:       -8.261493e+24 
Mrp:        1.167572e+24 
Mtp:        7.961381e+22 
PDE 2025 03 28 06 20 54.002 22.013 95.922 10.0  0.0 7.7 Myanmar
event name: us7000pn9s
time shift:       5.3478 
half duration:    9.0000 
latitude:        21.8031 
longitude:       96.0079 
depth:           10.0000 
Mrr:       -4.296843e+24 
Mtt:        8.868545e+24 
Mpp:       -4.571702e+24 
Mrt:       -6.136790e+25 
Mrp:        9.219357e+24 
Mtp:        1.563119e+25 
PDE 2025 03 28 06 20 54.002 22.013 95.922 10.0  0.0 7.7 Myanmar
event name: us7000pn9s
time shift:       6.0565 
half duration:    9.0000 
latitude:        21.8029 
longitude:       96.0018 
depth:            5.5438 
Mrr:       -3.160999e+24 
Mtt:        3.188134e+24 
Mpp:       -2.713501e+22 
Mrt:       -4.520392e+25 
Mrp:        6.368067e+24 
Mtp:       -1.276891e+23 
PDE 2025 03 28 06 20 54.002 22.013 95.922 10.0  0.0 7.7 Myanmar
event name: us7000pn9s
time shift:       6.3478 
half duration:    7.5000 
latitude:        22.1629 
longitude:       95.9944 
depth:           10.0000 
Mrr:       -2.582577e+24 
Mtt:        6.790912e+24 
Mpp:       -4.208335e+24 
Mrt:       -3.685909e+25 
Mrp:        5.722552e+24 
Mtp:        1.448532e+25 
PDE 2025 03 28 06 20 54.002 22.013 95.922 10.0  0.0 7.7 Myanmar
event name: us7000pn9s
time shift:       6.4565 
half duration:    9.0000 
latitude:        22.1631 
longitude:       96.0004 
depth:           14.4562 
Mrr:       -1.713520e+24 
Mtt:        4.718026e+24 
Mpp:       -3.004506e+24 
Mrt:       -2.445202e+25 
Mrp:        3.823230e+24 
Mtp:        1.035083e+25 
PDE 2025 03 28 06 20 54.002 22.013 95.922 10.0  0.0 7.7 Myanmar
event name: us7000pn9s
time shift:       6.5678 
half duration:    3.0000 
latitude:        21.8028 
longitude:       95.9958 
depth:            1.0876 
Mrr:       -6.486402e+23 
Mtt:        4.506651e+23 
Mpp:        1.979751e+23 
Mrt:       -9.279444e+24 
Mrp:        1.281461e+24 
Mtp:       -7.355918e+23 
PDE 2025 03 28 06 20 54.002 22.013 95.922 10.0  0.0 7.7 Myanmar
event name: us7000pn9s
time shift:       6.5947 
half duration:    3.0000 
latitude:        21.7134 
longitude:       96.0174 
depth:           14.4562 
Mrr:       -3.323799e+24 
Mtt:        7.657950e+24 
Mpp:       -4.334151e+24 
Mrt:       -4.745686e+25 
Mrp:        7.230630e+24 
Mtp:        1.487170e+25 
PDE 2025 03 28 06 20 54.002 22.013 95.922 10.0  0.0 7.7 Myanmar
event name: us7000pn9s
time shift:       6.6565 
half duration:    9.0000 
latitude:        22.1627 
longitude:       95.9883 
depth:            5.5438 
Mrr:       -3.836825e+24 
Mtt:        5.159439e+24 
Mpp:       -1.322614e+24 
Mrt:       -5.484606e+25 
Mrp:        7.889696e+24 
Mtp:        4.339799e+24 
PDE 2025 03 28 06 20 54.002 22.013 95.922 10.0  0.0 7.7 Myanmar
event name: us7000pn9s
time shift:       6.7678 
half duration:    9.0000 
latitude:        22.1633 
longitude:       96.0065 
depth:           18.9124 
Mrr:       -4.396951e+23 
Mtt:        1.197002e+24 
Mpp:       -7.573065e+23 
Mrt:       -6.274709e+24 
Mrp:        9.793578e+23 
Mtp:        2.608452e+24 
PDE 2025 03 28 06 20 54.002 22.013 95.922 10.0  0.0 7.7 Myanmar
event name: us7000pn9s
time shift:       6.8089 
half duration:    1.5000 
latitude:        21.7136 
longitude:       96.0234 
depth:           18.9124 
Mrr:       -5.304891e+23 
Mtt:        1.364805e+24 
Mpp:       -8.343162e+23 
Mrt:       -7.571779e+24 
Mrp:        1.171734e+24 
Mtp:        2.870462e+24 
PDE 2025 03 28 06 20 54.002 22.013 95.922 10.0  0.0 7.7 Myanmar
event name: us7000pn9s
time shift:       7.1678 
half duration:    9.0000 
latitude:        22.1625 
longitude:       95.9822 
depth:            1.0876 
Mrr:       -1.502238e+24 
Mtt:        1.195816e+24 
Mpp:        3.064213e+23 
Mrt:       -2.148835e+25 
Mrp:        2.986722e+24 
Mtp:       -1.173568e+24 
PDE 2025 03 28 06 20 54.002 22.013 95.922 10.0  0.0 7.7 Myanmar
event name: us7000pn9s
time shift:       7.5217 
half duration:    1.5000 
latitude:        21.7132 
longitude:       96.0113 
depth:           10.0000 
Mrr:       -4.363177e+24 
Mtt:        6.850003e+24 
Mpp:       -2.486826e+24 
Mrt:       -6.235291e+25 
Mrp:        9.094059e+24 
Mtp:        8.360308e+24 
PDE 2025 03 28 06 20 54.002 22.013 95.922 10.0  0.0 7.7 Myanmar
event name: us7000pn9s
time shift:       8.7947 
half duration:    9.0000 
latitude:        21.7130 
longitude:       96.0052 
depth:            5.5438 
Mrr:       -3.241861e+24 
Mtt:        4.406260e+24 
Mpp:       -1.164399e+24 
Mrt:       -4.634044e+25 
Mrp:        6.672087e+24 
Mtp:        3.830221e+24 
PDE 2025 03 28 06 20 54.002 22.013 95.922 10.0  0.0 7.7 Myanmar
event name: us7000pn9s
time shift:       9.3505 
half duration:    1.5000 
latitude:        21.6235 
longitude:       96.0208 
depth:           14.4562 
Mrr:       -3.392564e+24 
Mtt:        4.734994e+24 
Mpp:       -1.342430e+24 
Mrt:       -4.849249e+25 
Mrp:        6.997633e+24 
Mtp:        4.440101e+24 
PDE 2025 03 28 06 20 54.002 22.013 95.922 10.0  0.0 7.7 Myanmar
event name: us7000pn9s
time shift:       9.4089 
half duration:    1.5000 
latitude:        21.7128 
longitude:       95.9991 
depth:            1.0876 
Mrr:       -6.492819e+23 
Mtt:        9.052898e+23 
Mpp:       -2.560079e+23 
Mrt:       -9.280694e+24 
Mrp:        1.339121e+24 
Mtp:        8.465869e+23 
PDE 2025 03 28 06 20 54.002 22.013 95.922 10.0  0.0 7.7 Myanmar
event name: us7000pn9s
time shift:       9.5130 
half duration:    1.5000 
latitude:        21.6237 
longitude:       96.0268 
depth:           18.9124 
Mrr:       -5.586303e+23 
Mtt:        8.874942e+23 
Mpp:       -3.288638e+23 
Mrt:       -7.983044e+24 
Mrp:        1.165639e+24 
Mtp:        1.106879e+24 
PDE 2025 03 28 06 20 54.002 22.013 95.922 10.0  0.0 7.7 Myanmar
event name: us7000pn9s
time shift:       9.7947 
half duration:    7.5000 
latitude:        22.2530 
longitude:       95.9970 
depth:           14.4562 
Mrr:       -2.430959e+24 
Mtt:        6.950559e+24 
Mpp:       -4.519600e+24 
Mrt:       -3.468542e+25 
Mrp:        5.455915e+24 
Mtp:        1.558080e+25 
PDE 2025 03 28 06 20 54.002 22.013 95.922 10.0  0.0 7.7 Myanmar
event name: us7000pn9s
time shift:       9.9217 
half duration:    9.0000 
latitude:        22.2528 
longitude:       95.9910 
depth:           10.0000 
Mrr:       -3.760240e+24 
Mtt:        7.995093e+24 
Mpp:       -4.234852e+24 
Mrt:       -5.370000e+25 
Mrp:        8.097080e+24 
Mtp:        1.449493e+25 
PDE 2025 03 28 06 20 54.002 22.013 95.922 10.0  0.0 7.7 Myanmar
event name: us7000pn9s
time shift:       9.9947 
half duration:    9.0000 
latitude:        22.2526 
longitude:       95.9849 
depth:            5.5438 
Mrr:       -3.828776e+24 
Mtt:        3.220184e+24 
Mpp:        6.085920e+23 
Mrt:       -5.476467e+25 
Mrp:        7.633707e+24 
Mtp:       -2.390281e+24 
PDE 2025 03 28 06 20 54.002 22.013 95.922 10.0  0.0 7.7 Myanmar
event name: us7000pn9s
time shift:      10.2089 
half duration:    6.0000 
latitude:        22.2532 
longitude:       96.0031 
depth:           18.9124 
Mrr:       -4.937578e+23 
Mtt:        1.347083e+24 
Mpp:       -8.533249e+23 
Mrt:       -7.046166e+24 
Mrp:        1.100135e+24 
Mtp:        2.939294e+24 
PDE 2025 03 28 06 20 54.002 22.013 95.922 10.0  0.0 7.7 Myanmar
event name: us7000pn9s
time shift:      10.4089 
half duration:    9.0000 
latitude:        22.2524 
longitude:       95.9788 
depth:            1.0876 
Mrr:       -1.053133e+24 
Mtt:        5.315598e+23 
Mpp:        5.215729e+23 
Mrt:       -1.506961e+25 
Mrp:        2.055732e+24 
Mtp:       -1.891837e+24 
PDE 2025 03 28 06 20 54.002 22.013 95.922 10.0  0.0 7.7 Myanmar
event name: us7000pn9s
time shift:      10.4957 
half duration:    9.0000 
latitude:        21.6233 
longitude:       96.0147 
depth:           10.0000 
Mrr:       -4.133682e+24 
Mtt:        2.212081e+24 
Mpp:        1.921601e+24 
Mrt:       -5.914796e+25 
Mrp:        8.084614e+24 
Mtp:       -6.987826e+24 
PDE 2025 03 28 06 20 54.002 22.013 95.922 10.0  0.0 7.7 Myanmar
event name: us7000pn9s
time shift:      11.9505 
half duration:    3.0000 
latitude:        21.6231 
longitude:       96.0086 
depth:            5.5438 
Mrr:       -3.493142e+24 
Mtt:        3.930741e+24 
Mpp:       -4.375982e+23 
Mrt:       -4.994662e+25 
Mrp:        7.087803e+24 
Mtp:        1.279505e+24 
PDE 2025 03 28 06 20 54.002 22.013 95.922 10.0  0.0 7.7 Myanmar
event name: us7000pn9s
time shift:      12.4957 
half duration:    9.0000 
latitude:        22.3428 
longitude:       95.9876 
depth:           10.0000 
Mrr:       -3.992967e+24 
Mtt:        6.626220e+24 
Mpp:       -2.633253e+24 
Mrt:       -5.705611e+25 
Mrp:        8.366819e+24 
Mtp:        8.896666e+24 
PDE 2025 03 28 06 20 54.002 22.013 95.922 10.0  0.0 7.7 Myanmar
event name: us7000pn9s
time shift:      12.5130 
half duration:    7.5000 
latitude:        21.6229 
longitude:       96.0025 
depth:            1.0876 
Mrr:       -5.595145e+23 
Mtt:        1.199799e+24 
Mpp:       -6.402848e+23 
Mrt:       -7.990250e+24 
Mrp:        1.206086e+24 
Mtp:        2.192182e+24 
PDE 2025 03 28 06 20 54.002 22.013 95.922 10.0  0.0 7.7 Myanmar
event name: us7000pn9s
time shift:      12.5505 
half duration:    3.0000 
latitude:        22.3430 
longitude:       95.9937 
depth:           14.4562 
Mrr:       -2.649578e+24 
Mtt:        7.373187e+24 
Mpp:       -4.723609e+24 
Mrt:       -3.780826e+25 
Mrp:        5.921437e+24 
Mtp:        1.627644e+25 
PDE 2025 03 28 06 20 54.002 22.013 95.922 10.0  0.0 7.7 Myanmar
event name: us7000pn9s
time shift:      12.7505 
half duration:    1.5000 
latitude:        22.3426 
longitude:       95.9815 
depth:            5.5438 
Mrr:       -3.152848e+24 
Mtt:        2.287682e+24 
Mpp:        8.651663e+23 
Mrt:       -4.510294e+25 
Mrp:        6.240865e+24 
Mtp:       -3.236968e+24 
PDE 2025 03 28 06 20 54.002 22.013 95.922 10.0  0.0 7.7 Myanmar
event name: us7000pn9s
time shift:      13.1130 
half duration:    1.5000 
latitude:        22.3432 
longitude:       95.9997 
depth:           18.9124 
Mrr:       -5.150295e+23 
Mtt:        1.289470e+24 
Mpp:       -7.744406e+23 
Mrt:       -7.351742e+24 
Mrp:        1.133172e+24 
Mtp:        2.662870e+24 
PDE 2025 03 28 06 20 54.002 22.013 95.922 10.0  0.0 7.7 Myanmar
event name: us7000pn9s
time shift:      13.3130 
half duration:    7.5000 
latitude:        22.3424 
longitude:       95.9754 
depth:            1.0876 
Mrr:       -1.046936e+24 
Mtt:        7.285241e+23 
Mpp:        3.184119e+23 
Mrt:       -1.497744e+25 
Mrp:        2.068479e+24 
Mtp:       -1.183344e+24 
PDE 2025 03 28 06 20 54.002 22.013 95.922 10.0  0.0 7.7 Myanmar
event name: us7000pn9s
time shift:      13.6442 
half duration:    7.5000 
latitude:        21.5337 
longitude:       96.0302 
depth:           18.9124 
Mrr:       -5.876638e+23 
Mtt:        5.474440e+23 
Mpp:        4.021978e+22 
Mrt:       -8.404686e+24 
Mrp:        1.178272e+24 
Mtp:       -1.814947e+23 
PDE 2025 03 28 06 20 54.002 22.013 95.922 10.0  0.0 7.7 Myanmar
event name: us7000pn9s
time shift:      13.9135 
half duration:    6.0000 
latitude:        21.5335 
longitude:       96.0241 
depth:           14.4562 
Mrr:       -2.706046e+24 
Mtt:        2.210498e+24 
Mpp:        4.955476e+23 
Mrt:       -3.870691e+25 
Mrp:        5.387117e+24 
Mtp:       -1.917356e+24 
PDE 2025 03 28 06 20 54.002 22.013 95.922 10.0  0.0 7.7 Myanmar
event name: us7000pn9s
time shift:      14.4696 
half duration:    1.5000 
latitude:        21.5333 
longitude:       96.0181 
depth:           10.0000 
Mrr:       -3.201932e+24 
Mtt:        1.521277e+24 
Mpp:        1.680654e+24 
Mrt:       -4.581910e+25 
Mrp:        6.238443e+24 
Mtp:       -6.082562e+24 
PDE 2025 03 28 06 20 54.002 22.013 95.922 10.0  0.0 7.7 Myanmar
event name: us7000pn9s
time shift:      15.3135 
half duration:    7.5000 
latitude:        21.5331 
longitude:       96.0120 
depth:            5.5438 
Mrr:       -2.944791e+24 
Mtt:        3.376166e+24 
Mpp:       -4.313745e+23 
Mrt:       -4.210494e+25 
Mrp:        5.982920e+24 
Mtp:        1.296370e+24 
PDE 2025 03 28 06 20 54.002 22.013 95.922 10.0  0.0 7.7 Myanmar
event name: us7000pn9s
time shift:      15.4442 
half duration:    7.5000 
latitude:        21.5329 
longitude:       96.0059 
depth:            1.0876 
Mrr:       -4.472864e+23 
Mtt:        9.091645e+23 
Mpp:       -4.618781e+23 
Mrt:       -6.388429e+24 
Mrp:        9.579622e+23 
Mtp:        1.578290e+24 
PDE 2025 03 28 06 20 54.002 22.013 95.922 10.0  0.0 7.7 Myanmar
event name: us7000pn9s
time shift:      15.4696 
half duration:    7.5000 
latitude:        22.4327 
longitude:       95.9842 
depth:           10.0000 
Mrr:       -3.685568e+24 
Mtt:        4.582770e+24 
Mpp:       -8.972020e+23 
Mrt:       -5.269041e+25 
Mrp:        7.532318e+24 
Mtp:        2.867788e+24 
PDE 2025 03 28 06 20 54.002 22.013 95.922 10.0  0.0 7.7 Myanmar
event name: us7000pn9s
time shift:      15.5135 
half duration:    6.0000 
latitude:        22.4329 
longitude:       95.9903 
depth:           14.4562 
Mrr:       -2.864580e+24 
Mtt:        6.325767e+24 
Mpp:       -3.461187e+24 
Mrt:       -4.090497e+25 
Mrp:        6.197601e+24 
Mtp:        1.186152e+25 
PDE 2025 03 28 06 20 54.002 22.013 95.922 10.0  0.0 7.7 Myanmar
event name: us7000pn9s
time shift:      15.7135 
half duration:    1.5000 
latitude:        22.4325 
longitude:       95.9781 
depth:            5.5438 
Mrr:       -2.827777e+24 
Mtt:        4.961799e+23 
Mpp:        2.331597e+24 
Mrt:       -4.047981e+25 
Mrp:        5.404257e+24 
Mtp:       -8.324923e+24 
PDE 2025 03 28 06 20 54.002 22.013 95.922 10.0  0.0 7.7 Myanmar
event name: us7000pn9s
time shift:      15.8442 
half duration:    7.5000 
latitude:        22.4323 
longitude:       95.9720 
depth:            1.0876 
Mrr:       -8.127153e+23 
Mtt:        1.034993e+23 
Mpp:        7.092161e+23 
Mrt:       -1.163475e+25 
Mrp:        1.548352e+24 
Mtp:       -2.528908e+24 
PDE 2025 03 28 06 20 54.002 22.013 95.922 10.0  0.0 7.7 Myanmar
event name: us7000pn9s
time shift:      15.8442 
half duration:    3.0000 
latitude:        22.4331 
longitude:       95.9963 
depth:           18.9124 
Mrr:       -4.906401e+23 
Mtt:        1.068831e+24 
Mpp:       -5.781909e+23 
Mrt:       -7.006385e+24 
Mrp:        1.059697e+24 
Mtp:        1.980615e+24 
PDE 2025 03 28 06 20 54.002 22.013 95.922 10.0  0.0 7.7 Myanmar
event name: us7000pn9s
time shift:      17.3894 
half duration:    3.0000 
latitude:        21.4438 
longitude:       96.0336 
depth:           18.9124 
Mrr:       -5.493340e+23 
Mtt:        9.892713e+23 
Mpp:       -4.399373e+23 
Mrt:       -7.848161e+24 
Mrp:        1.160712e+24 
Mtp:        1.494646e+24 
PDE 2025 03 28 06 20 54.002 22.013 95.922 10.0  0.0 7.7 Myanmar
event name: us7000pn9s
time shift:      17.4801 
half duration:    1.5000 
latitude:        21.4436 
longitude:       96.0275 
depth:           14.4562 
Mrr:       -2.275716e+24 
Mtt:        2.826203e+24 
Mpp:       -5.504878e+23 
Mrt:       -3.253464e+25 
Mrp:        4.650521e+24 
Mtp:        1.758549e+24 
PDE 2025 03 28 06 20 54.002 22.013 95.922 10.0  0.0 7.7 Myanmar
event name: us7000pn9s
time shift:      17.8435 
half duration:    3.0000 
latitude:        21.4434 
longitude:       96.0215 
depth:           10.0000 
Mrr:       -2.378282e+24 
Mtt:        1.732055e+24 
Mpp:        6.462273e+23 
Mrt:       -3.402231e+25 
Mrp:        4.708454e+24 
Mtp:       -2.419459e+24 
PDE 2025 03 28 06 20 54.002 22.013 95.922 10.0  0.0 7.7 Myanmar
event name: us7000pn9s
time shift:      17.9894 
half duration:    9.0000 
latitude:        21.4430 
longitude:       96.0093 
depth:            1.0876 
Mrr:       -3.831168e+23 
Mtt:        1.072029e+24 
Mpp:       -6.889124e+23 
Mrt:       -5.466797e+24 
Mrp:        8.569451e+23 
Mtp:        2.374062e+24 
PDE 2025 03 28 06 20 54.002 22.013 95.922 10.0  0.0 7.7 Myanmar
event name: us7000pn9s
time shift:      18.0801 
half duration:    6.0000 
latitude:        21.4432 
longitude:       96.0154 
depth:            5.5438 
Mrr:       -1.968234e+24 
Mtt:        2.916665e+24 
Mpp:       -9.484310e+23 
Mrt:       -2.813050e+25 
Mrp:        4.080814e+24 
Mtp:        3.167083e+24 
PDE 2025 03 28 06 20 54.002 22.013 95.922 10.0  0.0 7.7 Myanmar
event name: us7000pn9s
time shift:      18.3894 
half duration:    7.5000 
latitude:        22.5223 
longitude:       95.9687 
depth:            1.0876 
Mrr:       -4.261062e+23 
Mtt:        3.402721e+22 
Mpp:        3.920790e+23 
Mrt:       -6.100448e+24 
Mrp:        8.092872e+23 
Mtp:       -1.396436e+24 
PDE 2025 03 28 06 20 54.002 22.013 95.922 10.0  0.0 7.7 Myanmar
event name: us7000pn9s
time shift:      18.5894 
half duration:    1.5000 
latitude:        22.5230 
longitude:       95.9930 
depth:           18.9124 
Mrr:       -5.620132e+23 
Mtt:        1.277448e+24 
Mpp:       -7.154351e+23 
Mrt:       -8.024672e+24 
Mrp:        1.220448e+24 
Mtp:        2.453920e+24 
PDE 2025 03 28 06 20 54.002 22.013 95.922 10.0  0.0 7.7 Myanmar
event name: us7000pn9s
time shift:      18.6435 
half duration:    9.0000 
latitude:        22.5226 
longitude:       95.9808 
depth:           10.0000 
Mrr:       -3.008993e+24 
Mtt:        3.394921e+24 
Mpp:       -3.859282e+23 
Mrt:       -4.302387e+25 
Mrp:        6.106549e+24 
Mtp:        1.133467e+24 
PDE 2025 03 28 06 20 54.002 22.013 95.922 10.0  0.0 7.7 Myanmar
event name: us7000pn9s
time shift:      18.6801 
half duration:    1.5000 
latitude:        22.5228 
longitude:       95.9869 
depth:           14.4562 
Mrr:       -2.921764e+24 
Mtt:        4.859046e+24 
Mpp:       -1.937282e+24 
Mrt:       -4.174935e+25 
Mrp:        6.123531e+24 
Mtp:        6.546384e+24 
PDE 2025 03 28 06 20 54.002 22.013 95.922 10.0  0.0 7.7 Myanmar
event name: us7000pn9s
time shift:      18.6801 
half duration:    3.0000 
latitude:        22.5225 
longitude:       95.9747 
depth:            5.5438 
Mrr:       -2.330927e+24 
Mtt:        1.291620e+24 
Mpp:        1.039307e+24 
Mrt:       -3.335196e+25 
Mrp:        4.564299e+24 
Mtp:       -3.786093e+24 
PDE 2025 03 28 06 20 54.002 22.013 95.922 10.0  0.0 7.7 Myanmar
event name: us7000pn9s
time shift:      19.3427 
half duration:    7.5000 
latitude:        21.3531 
longitude:       96.0127 
depth:            1.0876 
Mrr:       -4.078112e+23 
Mtt:        3.857684e+23 
Mpp:        2.204275e+22 
Mrt:       -5.832357e+24 
Mrp:        8.183943e+23 
Mtp:       -1.054980e+23 
PDE 2025 03 28 06 20 54.002 22.013 95.922 10.0  0.0 7.7 Myanmar
event name: us7000pn9s
time shift:      19.5427 
half duration:    1.5000 
latitude:        21.3538 
longitude:       96.0370 
depth:           18.9124 
Mrr:       -5.679329e+23 
Mtt:        2.812855e+23 
Mpp:        2.866474e+23 
Mrt:       -8.126824e+24 
Mrp:        1.107947e+24 
Mtp:       -1.038958e+24 
PDE 2025 03 28 06 20 54.002 22.013 95.922 10.0  0.0 7.7 Myanmar
event name: us7000pn9s
time shift:      19.6174 
half duration:    1.5000 
latitude:        21.3535 
longitude:       96.0248 
depth:           10.0000 
Mrr:       -2.084097e+24 
Mtt:        1.151615e+24 
Mpp:        9.324813e+23 
Mrt:       -2.982025e+25 
Mrp:        4.080567e+24 
Mtp:       -3.396427e+24 
PDE 2025 03 28 06 20 54.002 22.013 95.922 10.0  0.0 7.7 Myanmar
event name: us7000pn9s
time shift:      19.6488 
half duration:    1.5000 
latitude:        21.3533 
longitude:       96.0188 
depth:            5.5438 
Mrr:       -1.969972e+24 
Mtt:        4.240035e+23 
Mpp:        1.545969e+24 
Mrt:       -2.819891e+25 
Mrp:        3.774605e+24 
Mtp:       -5.526532e+24 
PDE 2025 03 28 06 20 54.002 22.013 95.922 10.0  0.0 7.7 Myanmar
event name: us7000pn9s
time shift:      19.6488 
half duration:    3.0000 
latitude:        21.3537 
longitude:       96.0309 
depth:           14.4562 
Mrr:       -1.606932e+24 
Mtt:        3.049925e+23 
Mpp:        1.301940e+24 
Mrt:       -2.300294e+25 
Mrp:        3.073921e+24 
Mtp:       -4.650515e+24 
PDE 2025 03 28 06 20 54.002 22.013 95.922 10.0  0.0 7.7 Myanmar
event name: us7000pn9s
time shift:      20.5010 
half duration:    4.5000 
latitude:        21.2631 
longitude:       96.0161 
depth:            1.0876 
Mrr:       -6.560789e+23 
Mtt:        6.203952e+23 
Mpp:        3.568367e+22 
Mrt:       -9.382988e+24 
Mrp:        1.316590e+24 
Mtp:       -1.704959e+23 
PDE 2025 03 28 06 20 54.002 22.013 95.922 10.0  0.0 7.7 Myanmar
event name: us7000pn9s
time shift:      20.8188 
half duration:    9.0000 
latitude:        21.2633 
longitude:       96.0222 
depth:            5.5438 
Mrr:       -2.601588e+24 
Mtt:        3.339422e+24 
Mpp:       -7.378344e+23 
Mrt:       -3.719156e+25 
Mrp:        5.329929e+24 
Mtp:        2.388577e+24 
PDE 2025 03 28 06 20 54.002 22.013 95.922 10.0  0.0 7.7 Myanmar
event name: us7000pn9s
time shift:      21.1427 
half duration:    7.5000 
latitude:        22.6130 
longitude:       95.9896 
depth:           18.9124 
Mrr:       -5.688759e+23 
Mtt:        4.785626e+23 
Mpp:        9.031327e+22 
Mrt:       -8.136881e+24 
Mrp:        1.134223e+24 
Mtp:       -3.547597e+23 
PDE 2025 03 28 06 20 54.002 22.013 95.922 10.0  0.0 7.7 Myanmar
event name: us7000pn9s
time shift:      21.1913 
half duration:    4.5000 
latitude:        21.2635 
longitude:       96.0282 
depth:           10.0000 
Mrr:       -2.436561e+24 
Mtt:        3.906339e+24 
Mpp:       -1.469778e+24 
Mrt:       -3.481878e+25 
Mrp:        5.088525e+24 
Mtp:        4.951154e+24 
PDE 2025 03 28 06 20 54.002 22.013 95.922 10.0  0.0 7.7 Myanmar
event name: us7000pn9s
time shift:      21.2188 
half duration:    9.0000 
latitude:        21.2637 
longitude:       96.0343 
depth:           14.4562 
Mrr:       -9.725142e+23 
Mtt:        1.603413e+24 
Mpp:       -6.308986e+23 
Mrt:       -1.389658e+25 
Mrp:        2.036498e+24 
Mtp:        2.130430e+24 
PDE 2025 03 28 06 20 54.002 22.013 95.922 10.0  0.0 7.7 Myanmar
event name: us7000pn9s
time shift:      21.2488 
half duration:    6.0000 
latitude:        22.6128 
longitude:       95.9835 
depth:           14.4562 
Mrr:       -1.980377e+24 
Mtt:        5.618114e+24 
Mpp:       -3.637737e+24 
Mrt:       -2.825719e+25 
Mrp:        4.439172e+24 
Mtp:        1.253901e+25 
PDE 2025 03 28 06 20 54.002 22.013 95.922 10.0  0.0 7.7 Myanmar
event name: us7000pn9s
time shift:      21.3010 
half duration:    6.0000 
latitude:        21.2639 
longitude:       96.0404 
depth:           18.9124 
Mrr:       -3.579739e+23 
Mtt:        1.724767e+23 
Mpp:        1.854972e+23 
Mrt:       -5.122504e+24 
Mrp:        6.977517e+23 
Mtp:       -6.716659e+23 
PDE 2025 03 28 06 20 54.002 22.013 95.922 10.0  0.0 7.7 Myanmar
event name: us7000pn9s
time shift:      21.4488 
half duration:    7.5000 
latitude:        22.6124 
longitude:       95.9713 
depth:            5.5438 
Mrr:       -1.368827e+24 
Mtt:        5.874197e+23 
Mpp:        7.814070e+23 
Mrt:       -1.958878e+25 
Mrp:        2.659123e+24 
Mtp:       -2.819610e+24 
PDE 2025 03 28 06 20 54.002 22.013 95.922 10.0  0.0 7.7 Myanmar
event name: us7000pn9s
time shift:      21.5427 
half duration:    1.5000 
latitude:        22.6122 
longitude:       95.9653 
depth:            1.0876 
Mrr:       -1.484009e+23 
Mtt:        7.338357e+22 
Mpp:        7.501735e+22 
Mrt:       -2.123542e+24 
Mrp:        2.894922e+23 
Mtp:       -2.718854e+23 
PDE 2025 03 28 06 20 54.002 22.013 95.922 10.0  0.0 7.7 Myanmar
event name: us7000pn9s
time shift:      21.6174 
half duration:    4.5000 
latitude:        22.6126 
longitude:       95.9774 
depth:           10.0000 
Mrr:       -1.805724e+24 
Mtt:        4.970280e+24 
Mpp:       -3.164556e+24 
Mrt:       -2.576781e+25 
Mrp:        4.028756e+24 
Mtp:        1.090216e+25 
PDE 2025 03 28 06 20 54.002 22.013 95.922 10.0  0.0 7.7 Myanmar
event name: us7000pn9s
time shift:      22.0628 
half duration:    7.5000 